<additional>
	<edgeData id="111" file="Edge_data_6.xml" freq="3600" excludeEmpty="True"/>
</additional>